**----------------------------------
**INDENTATION SIMULATION
**----------------------------------
*HEADING
Abapy Indentation Simulation
*PREPRINT, ECHO=NO, MODEL=NO, HISTORY=NO, CONTACT=NO
**----------------------------------
** SAMPLE DEFINITION
*PART, NAME = P_SAMPLE
**----------------------------------
** NODES
**----------------------------------
*NODE, NSET=ALLNODES
  1, 0.0, -1.0, 0.0
  2, 0.0625, -1.0, 0.0
  3, 0.125, -1.0, 0.0
  4, 0.1875, -1.0, 0.0
  5, 0.25, -1.0, 0.0
  6, 0.3125, -1.0, 0.0
  7, 0.375, -1.0, 0.0
  8, 0.4375, -1.0, 0.0
  9, 0.5, -1.0, 0.0
  10, 0.5625, -1.0, 0.0
  11, 0.625, -1.0, 0.0
  12, 0.6875, -1.0, 0.0
  13, 0.75, -1.0, 0.0
  14, 0.8125, -1.0, 0.0
  15, 0.875, -1.0, 0.0
  16, 0.9375, -1.0, 0.0
  17, 1.0, -1.0, 0.0
  18, 0.0, -0.9375, 0.0
  19, 0.0625, -0.9375, 0.0
  20, 0.125, -0.9375, 0.0
** ... 953 like lines cut
**----------------------------------
** NODE SETS
**----------------------------------
*NSET, NSET=CORE_NODES
1,2,3,4,5,6,7,8,9,
10,11,12,13,14,15,16,17,18,
19,20,21,22,23,24,25,26,27,
28,29,30,31,32,33,34,35,36,
37,38,39,40,41,42,43,44,45,
46,47,48,49,50,51,52,53,54,
55,56,57,58,59,60,61,62,63,
64,65,66,67,68,69,70,71,72,
73,74,75,76,77,78,79,80,81,
82,83,84,85,86,87,88,89,90,
91,92,93,94,95,96,97,98,99,
100,101,102,103,104,105,106,107,108,
109,110,111,112,113,114,115,116,117,
118,119,120,121,122,123,124,125,126,
127,128,129,130,131,132,133,134,135,
136,137,138,139,140,141,142,143,144,
145,146,147,148,149,150,151,152,153,
154,155,156,157,158,159,160,161,162,
163,164,165,166,167,168,169,170,171,
172,173,174,175,176,177,178,179,180,
** ... 13 like lines cut
*NSET, NSET=TOP_NODES
273,274,275,276,277,278,279,280,281,
282,283,284,285,286,287,288,289,563,
564,565,566,567,568,569,570,571,572,
573,574,575,576,577,578,
*NSET, NSET=SURFACE_NODES
273,274,275,276,277,278,279,280,281,
282,283,284,285,286,287,288,289,563,
564,565,566,567,568,569,570,571,572,
573,574,575,576,577,578,
*NSET, NSET=AXIS_NODES
1,18,35,52,69,86,103,120,137,
154,171,188,205,222,239,256,273,579,
596,613,630,647,664,681,698,715,732,
749,766,783,800,817,834,850,853,941,
944,984,987,1003,1006,1009,1012,1015,1018,
1021,1024,1027,1030,1033,1036,1039,1042,1045,
1048,
*NSET, NSET=ALL_NODES
1,2,3,4,5,6,7,8,9,
10,11,12,13,14,15,16,17,18,
19,20,21,22,23,24,25,26,27,
28,29,30,31,32,33,34,35,36,
37,38,39,40,41,42,43,44,45,
46,47,48,49,50,51,52,53,54,
55,56,57,58,59,60,61,62,63,
64,65,66,67,68,69,70,71,72,
73,74,75,76,77,78,79,80,81,
82,83,84,85,86,87,88,89,90,
91,92,93,94,95,96,97,98,99,
100,101,102,103,104,105,106,107,108,
109,110,111,112,113,114,115,116,117,
118,119,120,121,122,123,124,125,126,
127,128,129,130,131,132,133,134,135,
136,137,138,139,140,141,142,143,144,
145,146,147,148,149,150,151,152,153,
154,155,156,157,158,159,160,161,162,
163,164,165,166,167,168,169,170,171,
172,173,174,175,176,177,178,179,180,
** ... 89 like lines cut
*NSET, NSET=TIP_NODE
273,
*NSET, NSET=REF_NODE
1003,
*NSET, NSET=BOTTOM_NODES
1003,1004,1005,1055,1056,
**----------------------------------
** ELEMENTS
**----------------------------------
*ELEMENT, TYPE=CAX4, ELSET=CAX4_ELEMENTS
  1, 1, 2, 19, 18, 
  2, 2, 3, 20, 19, 
  3, 3, 4, 21, 20, 
  4, 4, 5, 22, 21, 
  5, 5, 6, 23, 22, 
  6, 6, 7, 24, 23, 
  7, 7, 8, 25, 24, 
  8, 8, 9, 26, 25, 
  9, 9, 10, 27, 26, 
  10, 10, 11, 28, 27, 
  11, 11, 12, 29, 28, 
  12, 12, 13, 30, 29, 
  13, 13, 14, 31, 30, 
  14, 14, 15, 32, 31, 
  15, 15, 16, 33, 32, 
  16, 16, 17, 34, 33, 
  17, 18, 19, 36, 35, 
  18, 19, 20, 37, 36, 
  19, 20, 21, 38, 37, 
  20, 21, 22, 39, 38, 
** ... 896 like lines cut
**----------------------------------
** ELEMENT SETS
**----------------------------------
*ELSET, ELSET=SURFACE_ELEMENTS
  256, 241, 242, 243, 244, 245, 246, 247, 248,
 249, 250, 251, 252, 253, 254, 255,
*ELSET, ELSET=CORE_ELEMENTS
  1, 2, 3, 4, 5, 6, 7, 8, 9,
 10, 11, 12, 13, 14, 15, 16, 17, 18,
 19, 20, 21, 22, 23, 24, 25, 26, 27,
 28, 29, 30, 31, 32, 33, 34, 35, 36,
 37, 38, 39, 40, 41, 42, 43, 44, 45,
 46, 47, 48, 49, 50, 51, 52, 53, 54,
 55, 56, 57, 58, 59, 60, 61, 62, 63,
 64, 65, 66, 67, 68, 69, 70, 71, 72,
 73, 74, 75, 76, 77, 78, 79, 80, 81,
 82, 83, 84, 85, 86, 87, 88, 89, 90,
 91, 92, 93, 94, 95, 96, 97, 98, 99,
 100, 101, 102, 103, 104, 105, 106, 107, 108,
 109, 110, 111, 112, 113, 114, 115, 116, 117,
 118, 119, 120, 121, 122, 123, 124, 125, 126,
 127, 128, 129, 130, 131, 132, 133, 134, 135,
 136, 137, 138, 139, 140, 141, 142, 143, 144,
 145, 146, 147, 148, 149, 150, 151, 152, 153,
 154, 155, 156, 157, 158, 159, 160, 161, 162,
 163, 164, 165, 166, 167, 168, 169, 170, 171,
 172, 173, 174, 175, 176, 177, 178, 179, 180,
** ... 9 like lines cut
*ELSET, ELSET=ALL_ELEMENTS
  1, 2, 3, 4, 5, 6, 7, 8, 9,
 10, 11, 12, 13, 14, 15, 16, 17, 18,
 19, 20, 21, 22, 23, 24, 25, 26, 27,
 28, 29, 30, 31, 32, 33, 34, 35, 36,
 37, 38, 39, 40, 41, 42, 43, 44, 45,
 46, 47, 48, 49, 50, 51, 52, 53, 54,
 55, 56, 57, 58, 59, 60, 61, 62, 63,
 64, 65, 66, 67, 68, 69, 70, 71, 72,
 73, 74, 75, 76, 77, 78, 79, 80, 81,
 82, 83, 84, 85, 86, 87, 88, 89, 90,
 91, 92, 93, 94, 95, 96, 97, 98, 99,
 100, 101, 102, 103, 104, 105, 106, 107, 108,
 109, 110, 111, 112, 113, 114, 115, 116, 117,
 118, 119, 120, 121, 122, 123, 124, 125, 126,
 127, 128, 129, 130, 131, 132, 133, 134, 135,
 136, 137, 138, 139, 140, 141, 142, 143, 144,
 145, 146, 147, 148, 149, 150, 151, 152, 153,
 154, 155, 156, 157, 158, 159, 160, 161, 162,
 163, 164, 165, 166, 167, 168, 169, 170, 171,
 172, 173, 174, 175, 176, 177, 178, 179, 180,
** ... 82 like lines cut
**----------------------------------
** ELEMENT SURFACES
**----------------------------------
*SURFACE, TYPE=ELEMENT, NAME=SURFACE_FACES
 surface_elements, S3
*SOLID SECTION, ELSET = ALL_ELEMENTS, MATERIAL = SAMPLE_MAT
*END PART
**----------------------------------
** INDENTER DEFINITION
**----------------------------------
*PART, NAME = P_INDENTER
**----------------------------------
** NODES
**----------------------------------
*NODE, NSET=ALLNODES
  1, 0.0, 1.0, 0.0
  2, 0.048824869096279144, 1.0007609128952026, 0.0
  3, 0.09772326797246933, 1.0030330419540405, 0.0
  4, 0.14676550030708313, 1.0067850351333618, 0.0
  5, 0.19601570069789886, 1.0119673013687134, 0.0
  6, 0.24552962183952332, 1.0185142755508423, 0.0
  7, 0.29535311460494995, 1.02634859085083, 0.0
  8, 0.3455216586589813, 1.0353844165802002, 0.0
  9, 0.3960602283477783, 1.0455316305160522, 0.0
  10, 0.44698432087898254, 1.056698203086853, 0.0
  11, 0.49830079078674316, 1.0687942504882812, 0.0
  12, 0.5500093698501587, 1.0817328691482544, 0.0
  13, 0.6021039485931396, 1.0954318046569824, 0.0
  14, 0.6545740365982056, 1.1098148822784424, 0.0
  15, 0.7074058055877686, 1.1248120069503784, 0.0
  16, 0.7605831623077393, 1.1403594017028809, 0.0
  17, 0.8140887022018433, 1.1563993692398071, 0.0
  18, 0.0, 0.9375, 0.0
  19, 0.04882656782865524, 0.9383115172386169, 0.0
  20, 0.0977366715669632, 0.9407330751419067, 0.0
** ... 953 like lines cut
**----------------------------------
** NODE SETS
**----------------------------------
*NSET, NSET=CORE_NODES
1,2,3,4,5,6,7,8,9,
10,11,12,13,14,15,16,17,18,
19,20,21,22,23,24,25,26,27,
28,29,30,31,32,33,34,35,36,
37,38,39,40,41,42,43,44,45,
46,47,48,49,50,51,52,53,54,
55,56,57,58,59,60,61,62,63,
64,65,66,67,68,69,70,71,72,
73,74,75,76,77,78,79,80,81,
82,83,84,85,86,87,88,89,90,
91,92,93,94,95,96,97,98,99,
100,101,102,103,104,105,106,107,108,
109,110,111,112,113,114,115,116,117,
118,119,120,121,122,123,124,125,126,
127,128,129,130,131,132,133,134,135,
136,137,138,139,140,141,142,143,144,
145,146,147,148,149,150,151,152,153,
154,155,156,157,158,159,160,161,162,
163,164,165,166,167,168,169,170,171,
172,173,174,175,176,177,178,179,180,
** ... 13 like lines cut
*NSET, NSET=TOP_NODES
273,274,275,276,277,278,279,280,281,
282,283,284,285,286,287,288,289,563,
564,565,566,567,568,569,570,571,572,
573,574,575,576,577,578,
*NSET, NSET=SURFACE_NODES
273,274,275,276,277,278,279,280,281,
282,283,284,285,286,287,288,289,563,
564,565,566,567,568,569,570,571,572,
573,574,575,576,577,578,
*NSET, NSET=AXIS_NODES
1,18,35,52,69,86,103,120,137,
154,171,188,205,222,239,256,273,579,
596,613,630,647,664,681,698,715,732,
749,766,783,800,817,834,850,853,941,
944,984,987,1003,1006,1009,1012,1015,1018,
1021,1024,1027,1030,1033,1036,1039,1042,1045,
1048,
*NSET, NSET=ALL_NODES
1,2,3,4,5,6,7,8,9,
10,11,12,13,14,15,16,17,18,
19,20,21,22,23,24,25,26,27,
28,29,30,31,32,33,34,35,36,
37,38,39,40,41,42,43,44,45,
46,47,48,49,50,51,52,53,54,
55,56,57,58,59,60,61,62,63,
64,65,66,67,68,69,70,71,72,
73,74,75,76,77,78,79,80,81,
82,83,84,85,86,87,88,89,90,
91,92,93,94,95,96,97,98,99,
100,101,102,103,104,105,106,107,108,
109,110,111,112,113,114,115,116,117,
118,119,120,121,122,123,124,125,126,
127,128,129,130,131,132,133,134,135,
136,137,138,139,140,141,142,143,144,
145,146,147,148,149,150,151,152,153,
154,155,156,157,158,159,160,161,162,
163,164,165,166,167,168,169,170,171,
172,173,174,175,176,177,178,179,180,
** ... 89 like lines cut
*NSET, NSET=TIP_NODE
273,
*NSET, NSET=REF_NODE
1003,
*NSET, NSET=BOTTOM_NODES
1003,1004,1005,1055,1056,
*NSET, NSET=RIGID_NODES
1003,1004,1005,1055,1056,
*NSET, NSET=XSYM_NODES
1,18,35,52,69,86,103,120,137,
154,171,188,205,222,239,256,273,579,
596,613,630,647,664,681,698,715,732,
749,766,783,800,817,834,850,853,941,
944,984,987,1003,1006,1009,1012,1015,1018,
1021,1024,1027,1030,1033,1036,1039,1042,1045,
1048,
**----------------------------------
** ELEMENTS
**----------------------------------
*ELEMENT, TYPE=CAX4, ELSET=CAX4_ELEMENTS
  1, 18, 19, 2, 1, 
  2, 19, 20, 3, 2, 
  3, 20, 21, 4, 3, 
  4, 21, 22, 5, 4, 
  5, 22, 23, 6, 5, 
  6, 23, 24, 7, 6, 
  7, 24, 25, 8, 7, 
  8, 25, 26, 9, 8, 
  9, 26, 27, 10, 9, 
  10, 27, 28, 11, 10, 
  11, 28, 29, 12, 11, 
  12, 29, 30, 13, 12, 
  13, 30, 31, 14, 13, 
  14, 31, 32, 15, 14, 
  15, 32, 33, 16, 15, 
  16, 33, 34, 17, 16, 
  17, 35, 36, 19, 18, 
  18, 36, 37, 20, 19, 
  19, 37, 38, 21, 20, 
  20, 38, 39, 22, 21, 
** ... 896 like lines cut
**----------------------------------
** ELEMENT SETS
**----------------------------------
*ELSET, ELSET=SURFACE_ELEMENTS
  256, 241, 242, 243, 244, 245, 246, 247, 248,
 249, 250, 251, 252, 253, 254, 255,
*ELSET, ELSET=CORE_ELEMENTS
  1, 2, 3, 4, 5, 6, 7, 8, 9,
 10, 11, 12, 13, 14, 15, 16, 17, 18,
 19, 20, 21, 22, 23, 24, 25, 26, 27,
 28, 29, 30, 31, 32, 33, 34, 35, 36,
 37, 38, 39, 40, 41, 42, 43, 44, 45,
 46, 47, 48, 49, 50, 51, 52, 53, 54,
 55, 56, 57, 58, 59, 60, 61, 62, 63,
 64, 65, 66, 67, 68, 69, 70, 71, 72,
 73, 74, 75, 76, 77, 78, 79, 80, 81,
 82, 83, 84, 85, 86, 87, 88, 89, 90,
 91, 92, 93, 94, 95, 96, 97, 98, 99,
 100, 101, 102, 103, 104, 105, 106, 107, 108,
 109, 110, 111, 112, 113, 114, 115, 116, 117,
 118, 119, 120, 121, 122, 123, 124, 125, 126,
 127, 128, 129, 130, 131, 132, 133, 134, 135,
 136, 137, 138, 139, 140, 141, 142, 143, 144,
 145, 146, 147, 148, 149, 150, 151, 152, 153,
 154, 155, 156, 157, 158, 159, 160, 161, 162,
 163, 164, 165, 166, 167, 168, 169, 170, 171,
 172, 173, 174, 175, 176, 177, 178, 179, 180,
** ... 9 like lines cut
*ELSET, ELSET=ALL_ELEMENTS
  1, 2, 3, 4, 5, 6, 7, 8, 9,
 10, 11, 12, 13, 14, 15, 16, 17, 18,
 19, 20, 21, 22, 23, 24, 25, 26, 27,
 28, 29, 30, 31, 32, 33, 34, 35, 36,
 37, 38, 39, 40, 41, 42, 43, 44, 45,
 46, 47, 48, 49, 50, 51, 52, 53, 54,
 55, 56, 57, 58, 59, 60, 61, 62, 63,
 64, 65, 66, 67, 68, 69, 70, 71, 72,
 73, 74, 75, 76, 77, 78, 79, 80, 81,
 82, 83, 84, 85, 86, 87, 88, 89, 90,
 91, 92, 93, 94, 95, 96, 97, 98, 99,
 100, 101, 102, 103, 104, 105, 106, 107, 108,
 109, 110, 111, 112, 113, 114, 115, 116, 117,
 118, 119, 120, 121, 122, 123, 124, 125, 126,
 127, 128, 129, 130, 131, 132, 133, 134, 135,
 136, 137, 138, 139, 140, 141, 142, 143, 144,
 145, 146, 147, 148, 149, 150, 151, 152, 153,
 154, 155, 156, 157, 158, 159, 160, 161, 162,
 163, 164, 165, 166, 167, 168, 169, 170, 171,
 172, 173, 174, 175, 176, 177, 178, 179, 180,
** ... 82 like lines cut
*ELSET, ELSET=INDENTER_ELEMENTS
  1, 2, 3, 4, 5, 6, 7, 8, 9,
 10, 11, 12, 13, 14, 15, 16, 17, 18,
 19, 20, 21, 22, 23, 24, 25, 26, 27,
 28, 29, 30, 31, 32, 33, 34, 35, 36,
 37, 38, 39, 40, 41, 42, 43, 44, 45,
 46, 47, 48, 49, 50, 51, 52, 53, 54,
 55, 56, 57, 58, 59, 60, 61, 62, 63,
 64, 65, 66, 67, 68, 69, 70, 71, 72,
 73, 74, 75, 76, 77, 78, 79, 80, 81,
 82, 83, 84, 85, 86, 87, 88, 89, 90,
 91, 92, 93, 94, 95, 96, 97, 98, 99,
 100, 101, 102, 103, 104, 105, 106, 107, 108,
 109, 110, 111, 112, 113, 114, 115, 116, 117,
 118, 119, 120, 121, 122, 123, 124, 125, 126,
 127, 128, 129, 130, 131, 132, 133, 134, 135,
 136, 137, 138, 139, 140, 141, 142, 143, 144,
 145, 146, 147, 148, 149, 150, 151, 152, 153,
 154, 155, 156, 157, 158, 159, 160, 161, 162,
 163, 164, 165, 166, 167, 168, 169, 170, 171,
 172, 173, 174, 175, 176, 177, 178, 179, 180,
** ... 82 like lines cut
**----------------------------------
** ELEMENT SURFACES
**----------------------------------
*SURFACE, TYPE=ELEMENT, NAME=SURFACE_FACES
 surface_elements, S1
**----------------------------------
** ELEMENT SURFACES
**----------------------------------
*SOLID SECTION, ELSET = ALL_ELEMENTS, MATERIAL = INDENTER_MAT
*RIGID BODY, REF NODE = REF_NODE, PIN NSET=RIGID_NODES
*END PART
**----------------------------------
** ASSEMBLY
**----------------------------------
*ASSEMBLY, NAME = ASSEMBLY
*INSTANCE, NAME = I_SAMPLE, PART = P_SAMPLE
*END INSTANCE
*INSTANCE, NAME = I_INDENTER, PART= P_INDENTER
*END INSTANCE
*END ASSEMBLY
**----------------------------------
** SURFACE INTERACTIONS
**----------------------------------
*SURFACE INTERACTION, NAME = SURF_INT
*FRICTION
0.0,
*SURFACE BEHAVIOR, PRESSURE-OVERCLOSURE = HARD
*CONTACT PAIR, INTERACTION = SURF_INT, SUPPLEMENTARY CONSTRAINTS = NO, TYPE= NODE TO SURFACE
I_SAMPLE.SURFACE_FACES, I_INDENTER.SURFACE_FACES
**----------------------------------
** MATERIALS
**----------------------------------
** SAMPLE MATERIAL
** <VonMises instance: 1 samples>
*MATERIAL, NAME=SAMPLE_MAT
*ELASTIC
  1.0, 0.3
*PLASTIC
  0.01, 0.
** INDENTER MATERIAL
** <Elastic instance: 1 samples>
*MATERIAL, NAME=INDENTER_MAT
*ELASTIC
  1.0, 0.3
**----------------------------------
** STEPS
**----------------------------------
*STEP, NAME = LOADING0, NLGEOM = YES, INC=1000000
*STATIC, DIRECT
0.005, 1.
*BOUNDARY
I_SAMPLE.AXIS_NODES, 1, 1
I_SAMPLE.BOTTOM_NODES, 1, 3
I_INDENTER.XSYM_NODES, 1, 1
I_INDENTER.XSYM_NODES, 3, 3
I_INDENTER.REF_NODE, 4, 6 
I_INDENTER.REF_NODE, 2, 2, -0.1500824966647604
*RESTART, WRITE, FREQUENCY = 0
*OUTPUT, FIELD, FREQUENCY = 999999
*NODE OUTPUT
COORD, U, 
*NODE OUTPUT, NSET=I_INDENTER.REF_NODE
U
*ELEMENT OUTPUT, ELSET=I_SAMPLE.ALL_ELEMENTS, DIRECTIONS = YES
LE, EE, PE, PEEQ, S, 
*ELEMENT OUTPUT, ELSET=I_INDENTER.ALL_ELEMENTS, DIRECTIONS = YES
LE, EE, PE, PEEQ, S, 
*OUTPUT, HISTORY
*ENERGY OUTPUT
ALLFD, ALLWK
*ENERGY OUTPUT, ELSET=I_SAMPLE.ALL_ELEMENTS
ALLPD, ALLSE
*ENERGY OUTPUT, ELSET=I_INDENTER.INDENTER_ELEMENTS
ALLPD, ALLSE
*CONTACT OUTPUT
CAREA
*CONTACT OUTPUT, NSET=I_SAMPLE.TOP_NODES
CPRESS
*NODE OUTPUT, NSET=I_INDENTER.REF_NODE
U2
*NODE OUTPUT, NSET=I_INDENTER.TIP_NODE
U2
*NODE OUTPUT, NSET=I_INDENTER.REF_NODE
RF2
*NODE OUTPUT, NSET = I_SAMPLE.TOP_NODES
COOR1, COOR2, COOR3
*END STEP
*STEP, NAME = LOADING1, NLGEOM = YES, INC=1000000
*STATIC, DIRECT
0.005, 1.
*BOUNDARY
I_SAMPLE.AXIS_NODES, 1, 1
I_SAMPLE.BOTTOM_NODES, 1, 3
I_INDENTER.XSYM_NODES, 1, 1
I_INDENTER.XSYM_NODES, 3, 3
I_INDENTER.REF_NODE, 4, 6 
I_INDENTER.REF_NODE, 2, 2, -0.3001649933295208
*RESTART, WRITE, FREQUENCY = 0
*OUTPUT, FIELD, FREQUENCY = 999999
*NODE OUTPUT
COORD, U, 
*NODE OUTPUT, NSET=I_INDENTER.REF_NODE
U
*ELEMENT OUTPUT, ELSET=I_SAMPLE.ALL_ELEMENTS, DIRECTIONS = YES
LE, EE, PE, PEEQ, S, 
*ELEMENT OUTPUT, ELSET=I_INDENTER.ALL_ELEMENTS, DIRECTIONS = YES
LE, EE, PE, PEEQ, S, 
*OUTPUT, HISTORY
*ENERGY OUTPUT
ALLFD, ALLWK
*ENERGY OUTPUT, ELSET=I_SAMPLE.ALL_ELEMENTS
ALLPD, ALLSE
*ENERGY OUTPUT, ELSET=I_INDENTER.INDENTER_ELEMENTS
ALLPD, ALLSE
*CONTACT OUTPUT
CAREA
*CONTACT OUTPUT, NSET=I_SAMPLE.TOP_NODES
CPRESS
*NODE OUTPUT, NSET=I_INDENTER.REF_NODE
U2
*NODE OUTPUT, NSET=I_INDENTER.TIP_NODE
U2
*NODE OUTPUT, NSET=I_INDENTER.REF_NODE
RF2
*NODE OUTPUT, NSET = I_SAMPLE.TOP_NODES
COOR1, COOR2, COOR3
*END STEP
*STEP, NAME = UNLOADING, NLGEOM = YES, INC=1000000
*STATIC, DIRECT
0.005, 1.
*BOUNDARY
I_SAMPLE.AXIS_NODES, 1, 1
I_SAMPLE.BOTTOM_NODES, 1, 3
I_INDENTER.XSYM_NODES, 1, 1
I_INDENTER.XSYM_NODES, 3, 3
I_INDENTER.REF_NODE, 4, 6 
I_INDENTER.REF_NODE, 2, 2, -0.0
*RESTART, WRITE, FREQUENCY = 0
*OUTPUT, FIELD, FREQUENCY = 999999
*NODE OUTPUT
COORD, U, 
*NODE OUTPUT, NSET=I_INDENTER.REF_NODE
U
*ELEMENT OUTPUT, ELSET=I_SAMPLE.ALL_ELEMENTS, DIRECTIONS = YES
LE, EE, PE, PEEQ, S, 
*ELEMENT OUTPUT, ELSET=I_INDENTER.ALL_ELEMENTS, DIRECTIONS = YES
LE, EE, PE, PEEQ, S, 
*OUTPUT, HISTORY
*ENERGY OUTPUT
ALLFD, ALLWK
*ENERGY OUTPUT, ELSET=I_SAMPLE.ALL_ELEMENTS
ALLPD, ALLSE
*ENERGY OUTPUT, ELSET=I_INDENTER.INDENTER_ELEMENTS
ALLPD, ALLSE
*CONTACT OUTPUT
CAREA
*CONTACT OUTPUT, NSET=I_SAMPLE.TOP_NODES
CPRESS
*NODE OUTPUT, NSET=I_INDENTER.REF_NODE
U2
*NODE OUTPUT, NSET=I_INDENTER.TIP_NODE
U2
*NODE OUTPUT, NSET=I_INDENTER.REF_NODE
RF2
*NODE OUTPUT, NSET = I_SAMPLE.TOP_NODES
COOR1, COOR2, COOR3
*END STEP
